*SPEF "ieee 1481-1999"
*DESIGN "user_proj_example"
*DATE "11:11:11 Fri 11 11, 1111"
*VENDOR "OpenRCX"
*PROGRAM "Parallel Extraction"
*VERSION "1.0"
*DESIGN_FLOW "NAME_SCOPE LOCAL" "PIN_CAP NONE"
*DIVIDER /
*DELIMITER :
*BUS_DELIMITER []
*T_UNIT 1 NS
*C_UNIT 1 PF
*R_UNIT 1 OHM
*L_UNIT 1 HENRY

*NAME_MAP
*1 io_in[0]
*2 io_in[10]
*3 io_in[11]
*4 io_in[12]
*5 io_in[13]
*6 io_in[14]
*7 io_in[15]
*8 io_in[16]
*9 io_in[17]
*10 io_in[18]
*11 io_in[19]
*12 io_in[1]
*13 io_in[20]
*14 io_in[21]
*15 io_in[22]
*16 io_in[23]
*17 io_in[24]
*18 io_in[25]
*19 io_in[26]
*20 io_in[27]
*21 io_in[28]
*22 io_in[29]
*23 io_in[2]
*24 io_in[30]
*25 io_in[31]
*26 io_in[32]
*27 io_in[33]
*28 io_in[34]
*29 io_in[35]
*30 io_in[36]
*31 io_in[37]
*32 io_in[3]
*33 io_in[4]
*34 io_in[5]
*35 io_in[6]
*36 io_in[7]
*37 io_in[8]
*38 io_in[9]
*39 net129
*40 net139
*41 net140
*42 net141
*43 net142
*44 net143
*45 net144
*46 net145
*47 net146
*48 net147
*49 net148
*50 net130
*51 net149
*52 net150
*53 net151
*54 net152
*55 net153
*56 net154
*57 net155
*58 net156
*59 net157
*60 net158
*61 net131
*62 net159
*63 net160
*64 net161
*65 net162
*66 net163
*67 net164
*68 net165
*69 net166
*70 net132
*71 net133
*72 net134
*73 net135
*74 net136
*75 net137
*76 net138
*77 net167
*78 net177
*79 net178
*80 net179
*81 net180
*82 net181
*83 net182
*84 net183
*85 net184
*86 net185
*87 net186
*88 net168
*89 net187
*90 net188
*91 net189
*92 net190
*93 net191
*94 net192
*95 net193
*96 net194
*97 net195
*98 net196
*99 net169
*100 net197
*101 net198
*102 net199
*103 net200
*104 net201
*105 net202
*106 net203
*107 net204
*108 net170
*109 net171
*110 net172
*111 net173
*112 net174
*113 net175
*114 net176
*115 net205
*116 net206
*117 net207
*118 la_data_in[0]
*119 la_data_in[100]
*120 la_data_in[101]
*121 la_data_in[102]
*122 la_data_in[103]
*123 la_data_in[104]
*124 la_data_in[105]
*125 la_data_in[106]
*126 la_data_in[107]
*127 la_data_in[108]
*128 la_data_in[109]
*129 la_data_in[10]
*130 la_data_in[110]
*131 la_data_in[111]
*132 la_data_in[112]
*133 la_data_in[113]
*134 la_data_in[114]
*135 la_data_in[115]
*136 la_data_in[116]
*137 la_data_in[117]
*138 la_data_in[118]
*139 la_data_in[119]
*140 la_data_in[11]
*141 la_data_in[120]
*142 la_data_in[121]
*143 la_data_in[122]
*144 la_data_in[123]
*145 la_data_in[124]
*146 la_data_in[125]
*147 la_data_in[126]
*148 la_data_in[127]
*149 la_data_in[12]
*150 la_data_in[13]
*151 la_data_in[14]
*152 la_data_in[15]
*153 la_data_in[16]
*154 la_data_in[17]
*155 la_data_in[18]
*156 la_data_in[19]
*157 la_data_in[1]
*158 la_data_in[20]
*159 la_data_in[21]
*160 la_data_in[22]
*161 la_data_in[23]
*162 la_data_in[24]
*163 la_data_in[25]
*164 la_data_in[26]
*165 la_data_in[27]
*166 la_data_in[28]
*167 la_data_in[29]
*168 la_data_in[2]
*169 la_data_in[30]
*170 la_data_in[31]
*171 la_data_in[32]
*172 la_data_in[33]
*173 la_data_in[34]
*174 la_data_in[35]
*175 la_data_in[36]
*176 la_data_in[37]
*177 la_data_in[38]
*178 la_data_in[39]
*179 la_data_in[3]
*180 la_data_in[40]
*181 la_data_in[41]
*182 la_data_in[42]
*183 la_data_in[43]
*184 la_data_in[44]
*185 la_data_in[45]
*186 la_data_in[46]
*187 la_data_in[47]
*188 la_data_in[48]
*189 la_data_in[49]
*190 la_data_in[4]
*191 la_data_in[50]
*192 la_data_in[51]
*193 la_data_in[52]
*194 la_data_in[53]
*195 la_data_in[54]
*196 la_data_in[55]
*197 la_data_in[56]
*198 la_data_in[57]
*199 la_data_in[58]
*200 la_data_in[59]
*201 la_data_in[5]
*202 la_data_in[60]
*203 la_data_in[61]
*204 la_data_in[62]
*205 la_data_in[63]
*206 la_data_in[64]
*207 la_data_in[65]
*208 la_data_in[66]
*209 la_data_in[67]
*210 la_data_in[68]
*211 la_data_in[69]
*212 la_data_in[6]
*213 la_data_in[70]
*214 la_data_in[71]
*215 la_data_in[72]
*216 la_data_in[73]
*217 la_data_in[74]
*218 la_data_in[75]
*219 la_data_in[76]
*220 la_data_in[77]
*221 la_data_in[78]
*222 la_data_in[79]
*223 la_data_in[7]
*224 la_data_in[80]
*225 la_data_in[81]
*226 la_data_in[82]
*227 la_data_in[83]
*228 la_data_in[84]
*229 la_data_in[85]
*230 la_data_in[86]
*231 la_data_in[87]
*232 la_data_in[88]
*233 la_data_in[89]
*234 la_data_in[8]
*235 la_data_in[90]
*236 la_data_in[91]
*237 la_data_in[92]
*238 la_data_in[93]
*239 la_data_in[94]
*240 la_data_in[95]
*241 la_data_in[96]
*242 la_data_in[97]
*243 la_data_in[98]
*244 la_data_in[99]
*245 la_data_in[9]
*246 net1
*247 net101
*248 net102
*249 net103
*250 net104
*251 net105
*252 net106
*253 net107
*254 net108
*255 net109
*256 net110
*257 net11
*258 net111
*259 net112
*260 net113
*261 net114
*262 net115
*263 net116
*264 net117
*265 net118
*266 net119
*267 net120
*268 net12
*269 net121
*270 net122
*271 net123
*272 net124
*273 net125
*274 net126
*275 net127
*276 net128
*277 net13
*278 net14
*279 net15
*280 net16
*281 net17
*282 net18
*283 net19
*284 net20
*285 net2
*286 net21
*287 net22
*288 net23
*289 net24
*290 net25
*291 net26
*292 net27
*293 net28
*294 net29
*295 net30
*296 net3
*297 net31
*298 net32
*299 net33
*300 net34
*301 net35
*302 net36
*303 net37
*304 net38
*305 net39
*306 net40
*307 net4
*308 net41
*309 net42
*310 net43
*311 net44
*312 net45
*313 net46
*314 net47
*315 net48
*316 net49
*317 net50
*318 net5
*319 net51
*320 net52
*321 net53
*322 net54
*323 net55
*324 net56
*325 net57
*326 net58
*327 net59
*328 net60
*329 net6
*330 net61
*331 net62
*332 net63
*333 net64
*334 net65
*335 net66
*336 net67
*337 net68
*338 net69
*339 net70
*340 net7
*341 net71
*342 net72
*343 net73
*344 net74
*345 net75
*346 net76
*347 net77
*348 net78
*349 net79
*350 net80
*351 net8
*352 net81
*353 net82
*354 net83
*355 net84
*356 net85
*357 net86
*358 net87
*359 net88
*360 net89
*361 net90
*362 net9
*363 net91
*364 net92
*365 net93
*366 net94
*367 net95
*368 net96
*369 net97
*370 net98
*371 net99
*372 net100
*373 net10
*374 la_oenb[0]
*375 la_oenb[100]
*376 la_oenb[101]
*377 la_oenb[102]
*378 la_oenb[103]
*379 la_oenb[104]
*380 la_oenb[105]
*381 la_oenb[106]
*382 la_oenb[107]
*383 la_oenb[108]
*384 la_oenb[109]
*385 la_oenb[10]
*386 la_oenb[110]
*387 la_oenb[111]
*388 la_oenb[112]
*389 la_oenb[113]
*390 la_oenb[114]
*391 la_oenb[115]
*392 la_oenb[116]
*393 la_oenb[117]
*394 la_oenb[118]
*395 la_oenb[119]
*396 la_oenb[11]
*397 la_oenb[120]
*398 la_oenb[121]
*399 la_oenb[122]
*400 la_oenb[123]
*401 la_oenb[124]
*402 la_oenb[125]
*403 la_oenb[126]
*404 la_oenb[127]
*405 la_oenb[12]
*406 la_oenb[13]
*407 la_oenb[14]
*408 la_oenb[15]
*409 la_oenb[16]
*410 la_oenb[17]
*411 la_oenb[18]
*412 la_oenb[19]
*413 la_oenb[1]
*414 la_oenb[20]
*415 la_oenb[21]
*416 la_oenb[22]
*417 la_oenb[23]
*418 la_oenb[24]
*419 la_oenb[25]
*420 la_oenb[26]
*421 la_oenb[27]
*422 la_oenb[28]
*423 la_oenb[29]
*424 la_oenb[2]
*425 la_oenb[30]
*426 la_oenb[31]
*427 la_oenb[32]
*428 la_oenb[33]
*429 la_oenb[34]
*430 la_oenb[35]
*431 la_oenb[36]
*432 la_oenb[37]
*433 la_oenb[38]
*434 la_oenb[39]
*435 la_oenb[3]
*436 la_oenb[40]
*437 la_oenb[41]
*438 la_oenb[42]
*439 la_oenb[43]
*440 la_oenb[44]
*441 la_oenb[45]
*442 la_oenb[46]
*443 la_oenb[47]
*444 la_oenb[48]
*445 la_oenb[49]
*446 la_oenb[4]
*447 la_oenb[50]
*448 la_oenb[51]
*449 la_oenb[52]
*450 la_oenb[53]
*451 la_oenb[54]
*452 la_oenb[55]
*453 la_oenb[56]
*454 la_oenb[57]
*455 la_oenb[58]
*456 la_oenb[59]
*457 la_oenb[5]
*458 la_oenb[60]
*459 la_oenb[61]
*460 la_oenb[62]
*461 la_oenb[63]
*462 la_oenb[64]
*463 la_oenb[65]
*464 la_oenb[66]
*465 la_oenb[67]
*466 la_oenb[68]
*467 la_oenb[69]
*468 la_oenb[6]
*469 la_oenb[70]
*470 la_oenb[71]
*471 la_oenb[72]
*472 la_oenb[73]
*473 la_oenb[74]
*474 la_oenb[75]
*475 la_oenb[76]
*476 la_oenb[77]
*477 la_oenb[78]
*478 la_oenb[79]
*479 la_oenb[7]
*480 la_oenb[80]
*481 la_oenb[81]
*482 la_oenb[82]
*483 la_oenb[83]
*484 la_oenb[84]
*485 la_oenb[85]
*486 la_oenb[86]
*487 la_oenb[87]
*488 la_oenb[88]
*489 la_oenb[89]
*490 la_oenb[8]
*491 la_oenb[90]
*492 la_oenb[91]
*493 la_oenb[92]
*494 la_oenb[93]
*495 la_oenb[94]
*496 la_oenb[95]
*497 la_oenb[96]
*498 la_oenb[97]
*499 la_oenb[98]
*500 la_oenb[99]
*501 la_oenb[9]
*504 wb_clk_i
*505 wb_rst_i
*506 net208
*507 wbs_adr_i[0]
*508 wbs_adr_i[10]
*509 wbs_adr_i[11]
*510 wbs_adr_i[12]
*511 wbs_adr_i[13]
*512 wbs_adr_i[14]
*513 wbs_adr_i[15]
*514 wbs_adr_i[16]
*515 wbs_adr_i[17]
*516 wbs_adr_i[18]
*517 wbs_adr_i[19]
*518 wbs_adr_i[1]
*519 wbs_adr_i[20]
*520 wbs_adr_i[21]
*521 wbs_adr_i[22]
*522 wbs_adr_i[23]
*523 wbs_adr_i[24]
*524 wbs_adr_i[25]
*525 wbs_adr_i[26]
*526 wbs_adr_i[27]
*527 wbs_adr_i[28]
*528 wbs_adr_i[29]
*529 wbs_adr_i[2]
*530 wbs_adr_i[30]
*531 wbs_adr_i[31]
*532 wbs_adr_i[3]
*533 wbs_adr_i[4]
*534 wbs_adr_i[5]
*535 wbs_adr_i[6]
*536 wbs_adr_i[7]
*537 wbs_adr_i[8]
*538 wbs_adr_i[9]
*539 wbs_cyc_i
*540 wbs_dat_i[0]
*541 wbs_dat_i[10]
*542 wbs_dat_i[11]
*543 wbs_dat_i[12]
*544 wbs_dat_i[13]
*545 wbs_dat_i[14]
*546 wbs_dat_i[15]
*547 wbs_dat_i[16]
*548 wbs_dat_i[17]
*549 wbs_dat_i[18]
*550 wbs_dat_i[19]
*551 wbs_dat_i[1]
*552 wbs_dat_i[20]
*553 wbs_dat_i[21]
*554 wbs_dat_i[22]
*555 wbs_dat_i[23]
*556 wbs_dat_i[24]
*557 wbs_dat_i[25]
*558 wbs_dat_i[26]
*559 wbs_dat_i[27]
*560 wbs_dat_i[28]
*561 wbs_dat_i[29]
*562 wbs_dat_i[2]
*563 wbs_dat_i[30]
*564 wbs_dat_i[31]
*565 wbs_dat_i[3]
*566 wbs_dat_i[4]
*567 wbs_dat_i[5]
*568 wbs_dat_i[6]
*569 wbs_dat_i[7]
*570 wbs_dat_i[8]
*571 wbs_dat_i[9]
*572 net209
*573 net219
*574 net220
*575 net221
*576 net222
*577 net223
*578 net224
*579 net225
*580 net226
*581 net227
*582 net228
*583 net210
*584 net229
*585 net230
*586 net231
*587 net232
*588 net233
*589 net234
*590 net235
*591 net236
*592 net237
*593 net238
*594 net211
*595 net239
*596 net240
*597 net212
*598 net213
*599 net214
*600 net215
*601 net216
*602 net217
*603 net218
*604 wbs_sel_i[0]
*605 wbs_sel_i[1]
*606 wbs_sel_i[2]
*607 wbs_sel_i[3]
*608 wbs_stb_i
*609 wbs_we_i
*610 FILLER_0_1003
*611 FILLER_0_1007
*612 FILLER_0_1012
*613 FILLER_0_1021
*614 FILLER_0_1030
*615 FILLER_0_1040
*616 FILLER_0_1044
*617 FILLER_0_1048
*618 FILLER_0_1057
*619 FILLER_0_1063
*620 FILLER_0_1068
*621 FILLER_0_1075
*622 FILLER_0_1084
*623 FILLER_0_109
*624 FILLER_0_1096
*625 FILLER_0_1103
*626 FILLER_0_1107
*627 FILLER_0_1111
*628 FILLER_0_1119
*629 FILLER_0_1124
*630 FILLER_0_113
*631 FILLER_0_1131
*632 FILLER_0_1138
*633 FILLER_0_1146
*634 FILLER_0_1152
*635 FILLER_0_1159
*636 FILLER_0_1166
*637 FILLER_0_1174
*638 FILLER_0_1180
*639 FILLER_0_1187
*640 FILLER_0_1194
*641 FILLER_0_1202
*642 FILLER_0_1208
*643 FILLER_0_1215
*644 FILLER_0_1222
*645 FILLER_0_1230
*646 FILLER_0_1236
*647 FILLER_0_1243
*648 FILLER_0_125
*649 FILLER_0_1250
*650 FILLER_0_1258
*651 FILLER_0_1264
*652 FILLER_0_1271
*653 FILLER_0_1278
*654 FILLER_0_1286
*655 FILLER_0_1292
*656 FILLER_0_1296
*657 FILLER_0_1300
*658 FILLER_0_1309
*659 FILLER_0_1315
*660 FILLER_0_1320
*661 FILLER_0_1327
*662 FILLER_0_1336
*663 FILLER_0_1348
*664 FILLER_0_1355
*665 FILLER_0_1359
*666 FILLER_0_1363
*667 FILLER_0_137
*668 FILLER_0_1371
*669 FILLER_0_1376
*670 FILLER_0_1383
*671 FILLER_0_1390
*672 FILLER_0_1398
*673 FILLER_0_1404
*674 FILLER_0_141
*675 FILLER_0_1411
*676 FILLER_0_1418
*677 FILLER_0_1426
*678 FILLER_0_1432
*679 FILLER_0_1439
*680 FILLER_0_1446
*681 FILLER_0_1454
*682 FILLER_0_1460
*683 FILLER_0_1467
*684 FILLER_0_1474
*685 FILLER_0_1482
*686 FILLER_0_1488
*687 FILLER_0_1495
*688 FILLER_0_15
*689 FILLER_0_1502
*690 FILLER_0_1510
*691 FILLER_0_1516
*692 FILLER_0_1523
*693 FILLER_0_153
*694 FILLER_0_1530
*695 FILLER_0_1538
*696 FILLER_0_1544
*697 FILLER_0_1548
*698 FILLER_0_1552
*699 FILLER_0_1561
*700 FILLER_0_1567
*701 FILLER_0_1572
*702 FILLER_0_1579
*703 FILLER_0_1588
*704 FILLER_0_1600
*705 FILLER_0_1607
*706 FILLER_0_1611
*707 FILLER_0_1615
*708 FILLER_0_1623
*709 FILLER_0_1628
*710 FILLER_0_1635
*711 FILLER_0_1642
*712 FILLER_0_165
*713 FILLER_0_1650
*714 FILLER_0_1656
*715 FILLER_0_1663
*716 FILLER_0_1670
*717 FILLER_0_1678
*718 FILLER_0_1684
*719 FILLER_0_169
*720 FILLER_0_1691
*721 FILLER_0_1698
*722 FILLER_0_1706
*723 FILLER_0_1712
*724 FILLER_0_1724
*725 FILLER_0_1737
*726 FILLER_0_1749
*727 FILLER_0_1761
*728 FILLER_0_1765
*729 FILLER_0_1777
*730 FILLER_0_1789
*731 FILLER_0_1793
*732 FILLER_0_1805
*733 FILLER_0_181
*734 FILLER_0_1817
*735 FILLER_0_1821
*736 FILLER_0_1833
*737 FILLER_0_1845
*738 FILLER_0_1849
*739 FILLER_0_1861
*740 FILLER_0_1873
*741 FILLER_0_1877
*742 FILLER_0_1889
*743 FILLER_0_1901
*744 FILLER_0_1905
*745 FILLER_0_1917
*746 FILLER_0_193
*747 FILLER_0_197
*748 FILLER_0_209
*749 FILLER_0_221
*750 FILLER_0_225
*751 FILLER_0_233
*752 FILLER_0_238
*753 FILLER_0_250
*754 FILLER_0_256
*755 FILLER_0_264
*756 FILLER_0_268
*757 FILLER_0_27
*758 FILLER_0_284
*759 FILLER_0_288
*760 FILLER_0_29
*761 FILLER_0_292
*762 FILLER_0_3
*763 FILLER_0_300
*764 FILLER_0_304
*765 FILLER_0_309
*766 FILLER_0_313
*767 FILLER_0_322
*768 FILLER_0_331
*769 FILLER_0_335
*770 FILLER_0_340
*771 FILLER_0_349
*772 FILLER_0_358
*773 FILLER_0_365
*774 FILLER_0_374
*775 FILLER_0_381
*776 FILLER_0_388
*777 FILLER_0_393
*778 FILLER_0_402
*779 FILLER_0_409
*780 FILLER_0_41
*781 FILLER_0_416
*782 FILLER_0_421
*783 FILLER_0_430
*784 FILLER_0_437
*785 FILLER_0_444
*786 FILLER_0_449
*787 FILLER_0_453
*788 FILLER_0_457
*789 FILLER_0_461
*790 FILLER_0_465
*791 FILLER_0_472
*792 FILLER_0_477
*793 FILLER_0_484
*794 FILLER_0_493
*795 FILLER_0_500
*796 FILLER_0_505
*797 FILLER_0_511
*798 FILLER_0_520
*799 FILLER_0_524
*800 FILLER_0_528
*801 FILLER_0_53
*802 FILLER_0_533
*803 FILLER_0_542
*804 FILLER_0_549
*805 FILLER_0_556
*806 FILLER_0_561
*807 FILLER_0_57
*808 FILLER_0_570
*809 FILLER_0_577
*810 FILLER_0_584
*811 FILLER_0_589
*812 FILLER_0_598
*813 FILLER_0_605
*814 FILLER_0_612
*815 FILLER_0_617
*816 FILLER_0_621
*817 FILLER_0_625
*818 FILLER_0_629
*819 FILLER_0_633
*820 FILLER_0_640
*821 FILLER_0_645
*822 FILLER_0_652
*823 FILLER_0_661
*824 FILLER_0_668
*825 FILLER_0_673
*826 FILLER_0_679
*827 FILLER_0_688
*828 FILLER_0_69
*829 FILLER_0_692
*830 FILLER_0_696
*831 FILLER_0_701
*832 FILLER_0_706
*833 FILLER_0_715
*834 FILLER_0_724
*835 FILLER_0_729
*836 FILLER_0_733
*837 FILLER_0_742
*838 FILLER_0_751
*839 FILLER_0_755
*840 FILLER_0_760
*841 FILLER_0_769
*842 FILLER_0_778
*843 FILLER_0_788
*844 FILLER_0_792
*845 FILLER_0_796
*846 FILLER_0_805
*847 FILLER_0_81
*848 FILLER_0_811
*849 FILLER_0_813
*850 FILLER_0_822
*851 FILLER_0_829
*852 FILLER_0_836
*853 FILLER_0_841
*854 FILLER_0_85
*855 FILLER_0_850
*856 FILLER_0_857
*857 FILLER_0_864
*858 FILLER_0_869
*859 FILLER_0_873
*860 FILLER_0_877
*861 FILLER_0_881
*862 FILLER_0_885
*863 FILLER_0_892
*864 FILLER_0_897
*865 FILLER_0_904
*866 FILLER_0_913
*867 FILLER_0_920
*868 FILLER_0_925
*869 FILLER_0_931
*870 FILLER_0_940
*871 FILLER_0_944
*872 FILLER_0_948
*873 FILLER_0_953
*874 FILLER_0_958
*875 FILLER_0_967
*876 FILLER_0_97
*877 FILLER_0_976
*878 FILLER_0_981
*879 FILLER_0_985
*880 FILLER_0_994
*881 FILLER_100_1005
*882 FILLER_100_1017
*883 FILLER_100_1029
*884 FILLER_100_1035
*885 FILLER_100_1037
*886 FILLER_100_1049
*887 FILLER_100_1061
*888 FILLER_100_1073
*889 FILLER_100_1085
*890 FILLER_100_109
*891 FILLER_100_1091
*892 FILLER_100_1093
*893 FILLER_100_1105
*894 FILLER_100_1117
*895 FILLER_100_1129
*896 FILLER_100_1141
*897 FILLER_100_1147
*898 FILLER_100_1149
*899 FILLER_100_1161
*900 FILLER_100_1173
*901 FILLER_100_1185
*902 FILLER_100_1197
*903 FILLER_100_1203
*904 FILLER_100_1205
*905 FILLER_100_121
*906 FILLER_100_1217
*907 FILLER_100_1229
*908 FILLER_100_1241
*909 FILLER_100_1253
*910 FILLER_100_1259
*911 FILLER_100_1261
*912 FILLER_100_1273
*913 FILLER_100_1285
*914 FILLER_100_1297
*915 FILLER_100_1309
*916 FILLER_100_1315
*917 FILLER_100_1317
*918 FILLER_100_1329
*919 FILLER_100_133
*920 FILLER_100_1341
*921 FILLER_100_1353
*922 FILLER_100_1365
*923 FILLER_100_1371
*924 FILLER_100_1373
*925 FILLER_100_1385
*926 FILLER_100_139
*927 FILLER_100_1397
*928 FILLER_100_1409
*929 FILLER_100_141
*930 FILLER_100_1421
*931 FILLER_100_1427
*932 FILLER_100_1429
*933 FILLER_100_1441
*934 FILLER_100_1453
*935 FILLER_100_1465
*936 FILLER_100_1477
*937 FILLER_100_1483
*938 FILLER_100_1485
*939 FILLER_100_1497
*940 FILLER_100_15
*941 FILLER_100_1509
*942 FILLER_100_1521
*943 FILLER_100_153
*944 FILLER_100_1533
*945 FILLER_100_1539
*946 FILLER_100_1541
*947 FILLER_100_1553
*948 FILLER_100_1565
*949 FILLER_100_1577
*950 FILLER_100_1589
*951 FILLER_100_1595
*952 FILLER_100_1597
*953 FILLER_100_1609
*954 FILLER_100_1621
*955 FILLER_100_1633
*956 FILLER_100_1645
*957 FILLER_100_165
*958 FILLER_100_1651
*959 FILLER_100_1653
*960 FILLER_100_1665
*961 FILLER_100_1677
*962 FILLER_100_1689
*963 FILLER_100_1701
*964 FILLER_100_1707
*965 FILLER_100_1709
*966 FILLER_100_1721
*967 FILLER_100_1733
*968 FILLER_100_1745
*969 FILLER_100_1757
*970 FILLER_100_1763
*971 FILLER_100_1765
*972 FILLER_100_177
*973 FILLER_100_1777
*974 FILLER_100_1789
*975 FILLER_100_1801
*976 FILLER_100_1813
*977 FILLER_100_1819
*978 FILLER_100_1821
*979 FILLER_100_1833
*980 FILLER_100_1845
*981 FILLER_100_1857
*982 FILLER_100_1869
*983 FILLER_100_1875
*984 FILLER_100_1877
*985 FILLER_100_1889
*986 FILLER_100_189
*987 FILLER_100_1901
*988 FILLER_100_1913
*989 FILLER_100_1925
*990 FILLER_100_195
*991 FILLER_100_197
*992 FILLER_100_209
*993 FILLER_100_221
*994 FILLER_100_233
*995 FILLER_100_245
*996 FILLER_100_251
*997 FILLER_100_253
*998 FILLER_100_265
*999 FILLER_100_27
*1000 FILLER_100_277
*1001 FILLER_100_289
*1002 FILLER_100_29
*1003 FILLER_100_3
*1004 FILLER_100_301
*1005 FILLER_100_307
*1006 FILLER_100_309
*1007 FILLER_100_321
*1008 FILLER_100_333
*1009 FILLER_100_345
*1010 FILLER_100_357
*1011 FILLER_100_363
*1012 FILLER_100_365
*1013 FILLER_100_377
*1014 FILLER_100_389
*1015 FILLER_100_401
*1016 FILLER_100_41
*1017 FILLER_100_413
*1018 FILLER_100_419
*1019 FILLER_100_421
*1020 FILLER_100_433
*1021 FILLER_100_445
*1022 FILLER_100_457
*1023 FILLER_100_469
*1024 FILLER_100_475
*1025 FILLER_100_477
*1026 FILLER_100_489
*1027 FILLER_100_501
*1028 FILLER_100_513
*1029 FILLER_100_525
*1030 FILLER_100_53
*1031 FILLER_100_531
*1032 FILLER_100_533
*1033 FILLER_100_545
*1034 FILLER_100_557
*1035 FILLER_100_569
*1036 FILLER_100_581
*1037 FILLER_100_587
*1038 FILLER_100_589
*1039 FILLER_100_601
*1040 FILLER_100_613
*1041 FILLER_100_625
*1042 FILLER_100_637
*1043 FILLER_100_643
*1044 FILLER_100_645
*1045 FILLER_100_65
*1046 FILLER_100_657
*1047 FILLER_100_669
*1048 FILLER_100_681
*1049 FILLER_100_693
*1050 FILLER_100_699
*1051 FILLER_100_701
*1052 FILLER_100_713
*1053 FILLER_100_725
*1054 FILLER_100_737
*1055 FILLER_100_749
*1056 FILLER_100_755
*1057 FILLER_100_757
*1058 FILLER_100_769
*1059 FILLER_100_77
*1060 FILLER_100_781
*1061 FILLER_100_793
*1062 FILLER_100_805
*1063 FILLER_100_811
*1064 FILLER_100_813
*1065 FILLER_100_825
*1066 FILLER_100_83
*1067 FILLER_100_837
*1068 FILLER_100_849
*1069 FILLER_100_85
*1070 FILLER_100_861
*1071 FILLER_100_867
*1072 FILLER_100_869
*1073 FILLER_100_881
*1074 FILLER_100_893
*1075 FILLER_100_905
*1076 FILLER_100_917
*1077 FILLER_100_923
*1078 FILLER_100_925
*1079 FILLER_100_937
*1080 FILLER_100_949
*1081 FILLER_100_961
*1082 FILLER_100_97
*1083 FILLER_100_973
*1084 FILLER_100_979
*1085 FILLER_100_981
*1086 FILLER_100_993
*1087 FILLER_101_1001
*1088 FILLER_101_1007
*1089 FILLER_101_1009
*1090 FILLER_101_1021
*1091 FILLER_101_1033
*1092 FILLER_101_1045
*1093 FILLER_101_105
*1094 FILLER_101_1057
*1095 FILLER_101_1063
*1096 FILLER_101_1065
*1097 FILLER_101_1077
*1098 FILLER_101_1089
*1099 FILLER_101_1101
*1100 FILLER_101_111
*1101 FILLER_101_1113
*1102 FILLER_101_1119
*1103 FILLER_101_1121
*1104 FILLER_101_113
*1105 FILLER_101_1133
*1106 FILLER_101_1145
*1107 FILLER_101_1157
*1108 FILLER_101_1169
*1109 FILLER_101_1175
*1110 FILLER_101_1177
*1111 FILLER_101_1189
*1112 FILLER_101_1201
*1113 FILLER_101_1213
*1114 FILLER_101_1225
*1115 FILLER_101_1231
*1116 FILLER_101_1233
*1117 FILLER_101_1245
*1118 FILLER_101_125
*1119 FILLER_101_1257
*1120 FILLER_101_1269
*1121 FILLER_101_1281
*1122 FILLER_101_1287
*1123 FILLER_101_1289
*1124 FILLER_101_1301
*1125 FILLER_101_1313
*1126 FILLER_101_1325
*1127 FILLER_101_1337
*1128 FILLER_101_1343
*1129 FILLER_101_1345
*1130 FILLER_101_1357
*1131 FILLER_101_1369
*1132 FILLER_101_137
*1133 FILLER_101_1381
*1134 FILLER_101_1393
*1135 FILLER_101_1399
*1136 FILLER_101_1401
*1137 FILLER_101_1413
*1138 FILLER_101_1425
*1139 FILLER_101_1437
*1140 FILLER_101_1449
*1141 FILLER_101_1455
*1142 FILLER_101_1457
*1143 FILLER_101_1469
*1144 FILLER_101_1481
*1145 FILLER_101_149
*1146 FILLER_101_1493
*1147 FILLER_101_15
*1148 FILLER_101_1505
*1149 FILLER_101_1511
*1150 FILLER_101_1513
*1151 FILLER_101_1525
*1152 FILLER_101_1537
*1153 FILLER_101_1549
*1154 FILLER_101_1561
*1155 FILLER_101_1567
*1156 FILLER_101_1569
*1157 FILLER_101_1581
*1158 FILLER_101_1593
*1159 FILLER_101_1605
*1160 FILLER_101_161
*1161 FILLER_101_1617
*1162 FILLER_101_1623
*1163 FILLER_101_1625
*1164 FILLER_101_1637
*1165 FILLER_101_1649
*1166 FILLER_101_1661
*1167 FILLER_101_167
*1168 FILLER_101_1673
*1169 FILLER_101_1679
*1170 FILLER_101_1681
*1171 FILLER_101_169
*1172 FILLER_101_1693
*1173 FILLER_101_1705
*1174 FILLER_101_1717
*1175 FILLER_101_1729
*1176 FILLER_101_1735
*1177 FILLER_101_1737
*1178 FILLER_101_1749
*1179 FILLER_101_1761
*1180 FILLER_101_1773
*1181 FILLER_101_1785
*1182 FILLER_101_1791
*1183 FILLER_101_1793
*1184 FILLER_101_1805
*1185 FILLER_101_181
*1186 FILLER_101_1817
*1187 FILLER_101_1829
*1188 FILLER_101_1841
*1189 FILLER_101_1847
*1190 FILLER_101_1849
*1191 FILLER_101_1861
*1192 FILLER_101_1873
*1193 FILLER_101_1885
*1194 FILLER_101_1897
*1195 FILLER_101_1903
*1196 FILLER_101_1905
*1197 FILLER_101_1917
*1198 FILLER_101_193
*1199 FILLER_101_205
*1200 FILLER_101_217
*1201 FILLER_101_223
*1202 FILLER_101_225
*1203 FILLER_101_237
*1204 FILLER_101_249
*1205 FILLER_101_261
*1206 FILLER_101_27
*1207 FILLER_101_273
*1208 FILLER_101_279
*1209 FILLER_101_281
*1210 FILLER_101_293
*1211 FILLER_101_3
*1212 FILLER_101_305
*1213 FILLER_101_317
*1214 FILLER_101_329
*1215 FILLER_101_335
*1216 FILLER_101_337
*1217 FILLER_101_349
*1218 FILLER_101_361
*1219 FILLER_101_373
*1220 FILLER_101_385
*1221 FILLER_101_39
*1222 FILLER_101_391
*1223 FILLER_101_393
*1224 FILLER_101_405
*1225 FILLER_101_417
*1226 FILLER_101_429
*1227 FILLER_101_441
*1228 FILLER_101_447
*1229 FILLER_101_449
*1230 FILLER_101_461
*1231 FILLER_101_473
*1232 FILLER_101_485
*1233 FILLER_101_497
*1234 FILLER_101_503
*1235 FILLER_101_505
*1236 FILLER_101_51
*1237 FILLER_101_517
*1238 FILLER_101_529
*1239 FILLER_101_541
*1240 FILLER_101_55
*1241 FILLER_101_553
*1242 FILLER_101_559
*1243 FILLER_101_561
*1244 FILLER_101_57
*1245 FILLER_101_573
*1246 FILLER_101_585
*1247 FILLER_101_597
*1248 FILLER_101_609
*1249 FILLER_101_615
*1250 FILLER_101_617
*1251 FILLER_101_629
*1252 FILLER_101_641
*1253 FILLER_101_653
*1254 FILLER_101_665
*1255 FILLER_101_671
*1256 FILLER_101_673
*1257 FILLER_101_685
*1258 FILLER_101_69
*1259 FILLER_101_697
*1260 FILLER_101_709
*1261 FILLER_101_721
*1262 FILLER_101_727
*1263 FILLER_101_729
*1264 FILLER_101_741
*1265 FILLER_101_753
*1266 FILLER_101_765
*1267 FILLER_101_777
*1268 FILLER_101_783
*1269 FILLER_101_785
*1270 FILLER_101_797
*1271 FILLER_101_809
*1272 FILLER_101_81
*1273 FILLER_101_821
*1274 FILLER_101_833
*1275 FILLER_101_839
*1276 FILLER_101_841
*1277 FILLER_101_853
*1278 FILLER_101_865
*1279 FILLER_101_877
*1280 FILLER_101_889
*1281 FILLER_101_895
*1282 FILLER_101_897
*1283 FILLER_101_909
*1284 FILLER_101_921
*1285 FILLER_101_93
*1286 FILLER_101_933
*1287 FILLER_101_945
*1288 FILLER_101_951
*1289 FILLER_101_953
*1290 FILLER_101_965
*1291 FILLER_101_977
*1292 FILLER_101_989
*1293 FILLER_102_1005
*1294 FILLER_102_1017
*1295 FILLER_102_1029
*1296 FILLER_102_1035
*1297 FILLER_102_1037
*1298 FILLER_102_1049
*1299 FILLER_102_1061
*1300 FILLER_102_1073
*1301 FILLER_102_1085
*1302 FILLER_102_109
*1303 FILLER_102_1091
*1304 FILLER_102_1093
*1305 FILLER_102_1105
*1306 FILLER_102_1117
*1307 FILLER_102_1129
*1308 FILLER_102_1141
*1309 FILLER_102_1147
*1310 FILLER_102_1149
*1311 FILLER_102_1161
*1312 FILLER_102_1173
*1313 FILLER_102_1185
*1314 FILLER_102_1197
*1315 FILLER_102_1203
*1316 FILLER_102_1205
*1317 FILLER_102_121
*1318 FILLER_102_1217
*1319 FILLER_102_1229
*1320 FILLER_102_1241
*1321 FILLER_102_1253
*1322 FILLER_102_1259
*1323 FILLER_102_1261
*1324 FILLER_102_1273
*1325 FILLER_102_1285
*1326 FILLER_102_1297
*1327 FILLER_102_1309
*1328 FILLER_102_1315
*1329 FILLER_102_1317
*1330 FILLER_102_1329
*1331 FILLER_102_133
*1332 FILLER_102_1341
*1333 FILLER_102_1353
*1334 FILLER_102_1365
*1335 FILLER_102_1371
*1336 FILLER_102_1373
*1337 FILLER_102_1385
*1338 FILLER_102_139
*1339 FILLER_102_1397
*1340 FILLER_102_1409
*1341 FILLER_102_141
*1342 FILLER_102_1421
*1343 FILLER_102_1427
*1344 FILLER_102_1429
*1345 FILLER_102_1441
*1346 FILLER_102_1453
*1347 FILLER_102_1465
*1348 FILLER_102_1477
*1349 FILLER_102_1483
*1350 FILLER_102_1485
*1351 FILLER_102_1497
*1352 FILLER_102_15
*1353 FILLER_102_1509
*1354 FILLER_102_1521
*1355 FILLER_102_153
*1356 FILLER_102_1533
*1357 FILLER_102_1539
*1358 FILLER_102_1541
*1359 FILLER_102_1553
*1360 FILLER_102_1565
*1361 FILLER_102_1577
*1362 FILLER_102_1589
*1363 FILLER_102_1595
*1364 FILLER_102_1597
*1365 FILLER_102_1609
*1366 FILLER_102_1621
*1367 FILLER_102_1633
*1368 FILLER_102_1645
*1369 FILLER_102_165
*1370 FILLER_102_1651
*1371 FILLER_102_1653
*1372 FILLER_102_1665
*1373 FILLER_102_1677
*1374 FILLER_102_1689
*1375 FILLER_102_1701
*1376 FILLER_102_1707
*1377 FILLER_102_1709
*1378 FILLER_102_1721
*1379 FILLER_102_1733
*1380 FILLER_102_1745
*1381 FILLER_102_1757
*1382 FILLER_102_1763
*1383 FILLER_102_1765
*1384 FILLER_102_177
*1385 FILLER_102_1777
*1386 FILLER_102_1789
*1387 FILLER_102_1801
*1388 FILLER_102_1813
*1389 FILLER_102_1819
*1390 FILLER_102_1821
*1391 FILLER_102_1833
*1392 FILLER_102_1845
*1393 FILLER_102_1857
*1394 FILLER_102_1869
*1395 FILLER_102_1875
*1396 FILLER_102_1877
*1397 FILLER_102_1889
*1398 FILLER_102_189
*1399 FILLER_102_1901
*1400 FILLER_102_1913
*1401 FILLER_102_1925
*1402 FILLER_102_195
*1403 FILLER_102_197
*1404 FILLER_102_209
*1405 FILLER_102_221
*1406 FILLER_102_233
*1407 FILLER_102_245
*1408 FILLER_102_251
*1409 FILLER_102_253
*1410 FILLER_102_265
*1411 FILLER_102_27
*1412 FILLER_102_277
*1413 FILLER_102_289
*1414 FILLER_102_29
*1415 FILLER_102_3
*1416 FILLER_102_301
*1417 FILLER_102_307
*1418 FILLER_102_309
*1419 FILLER_102_321
*1420 FILLER_102_333
*1421 FILLER_102_345
*1422 FILLER_102_357
*1423 FILLER_102_363
*1424 FILLER_102_365
*1425 FILLER_102_377
*1426 FILLER_102_389
*1427 FILLER_102_401
*1428 FILLER_102_41
*1429 FILLER_102_413
*1430 FILLER_102_419
*1431 FILLER_102_421
*1432 FILLER_102_433
*1433 FILLER_102_445
*1434 FILLER_102_457
*1435 FILLER_102_469
*1436 FILLER_102_475
*1437 FILLER_102_477
*1438 FILLER_102_489
*1439 FILLER_102_501
*1440 FILLER_102_513
*1441 FILLER_102_525
*1442 FILLER_102_53
*1443 FILLER_102_531
*1444 FILLER_102_533
*1445 FILLER_102_545
*1446 FILLER_102_557
*1447 FILLER_102_569
*1448 FILLER_102_581
*1449 FILLER_102_587
*1450 FILLER_102_589
*1451 FILLER_102_601
*1452 FILLER_102_613
*1453 FILLER_102_625
*1454 FILLER_102_637
*1455 FILLER_102_643
*1456 FILLER_102_645
*1457 FILLER_102_65
*1458 FILLER_102_657
*1459 FILLER_102_669
*1460 FILLER_102_681
*1461 FILLER_102_693
*1462 FILLER_102_699
*1463 FILLER_102_701
*1464 FILLER_102_713
*1465 FILLER_102_725
*1466 FILLER_102_737
*1467 FILLER_102_749
*1468 FILLER_102_755
*1469 FILLER_102_757
*1470 FILLER_102_769
*1471 FILLER_102_77
*1472 FILLER_102_781
*1473 FILLER_102_793
*1474 FILLER_102_805
*1475 FILLER_102_811
*1476 FILLER_102_813
*1477 FILLER_102_825
*1478 FILLER_102_83
*1479 FILLER_102_837
*1480 FILLER_102_849
*1481 FILLER_102_85
*1482 FILLER_102_861
*1483 FILLER_102_867
*1484 FILLER_102_869
*1485 FILLER_102_881
*1486 FILLER_102_893
*1487 FILLER_102_905
*1488 FILLER_102_917
*1489 FILLER_102_923
*1490 FILLER_102_925
*1491 FILLER_102_937
*1492 FILLER_102_949
*1493 FILLER_102_961
*1494 FILLER_102_97
*1495 FILLER_102_973
*1496 FILLER_102_979
*1497 FILLER_102_981
*1498 FILLER_102_993
*1499 FILLER_103_1001
*1500 FILLER_103_1007
*1501 FILLER_103_1009
*1502 FILLER_103_1021
*1503 FILLER_103_1033
*1504 FILLER_103_1045
*1505 FILLER_103_105
*1506 FILLER_103_1057
*1507 FILLER_103_1063
*1508 FILLER_103_1065
*1509 FILLER_103_1077
*1510 FILLER_103_1089
*1511 FILLER_103_1101
*1512 FILLER_103_111
*1513 FILLER_103_1113
*1514 FILLER_103_1119
*1515 FILLER_103_1121
*1516 FILLER_103_113
*1517 FILLER_103_1133
*1518 FILLER_103_1145
*1519 FILLER_103_1157
*1520 FILLER_103_1169
*1521 FILLER_103_1175
*1522 FILLER_103_1177
*1523 FILLER_103_1189
*1524 FILLER_103_1201
*1525 FILLER_103_1213
*1526 FILLER_103_1225
*1527 FILLER_103_1231
*1528 FILLER_103_1233
*1529 FILLER_103_1245
*1530 FILLER_103_125
*1531 FILLER_103_1257
*1532 FILLER_103_1269
*1533 FILLER_103_1281
*1534 FILLER_103_1287
*1535 FILLER_103_1289
*1536 FILLER_103_1301
*1537 FILLER_103_1313
*1538 FILLER_103_1325
*1539 FILLER_103_1337
*1540 FILLER_103_1343
*1541 FILLER_103_1345
*1542 FILLER_103_1357
*1543 FILLER_103_1369
*1544 FILLER_103_137
*1545 FILLER_103_1381
*1546 FILLER_103_1393
*1547 FILLER_103_1399
*1548 FILLER_103_1401
*1549 FILLER_103_1413
*1550 FILLER_103_1425
*1551 FILLER_103_1437
*1552 FILLER_103_1449
*1553 FILLER_103_1455
*1554 FILLER_103_1457
*1555 FILLER_103_1469
*1556 FILLER_103_1481
*1557 FILLER_103_149
*1558 FILLER_103_1493
*1559 FILLER_103_15
*1560 FILLER_103_1505
*1561 FILLER_103_1511
*1562 FILLER_103_1513
*1563 FILLER_103_1525
*1564 FILLER_103_1537
*1565 FILLER_103_1549
*1566 FILLER_103_1561
*1567 FILLER_103_1567
*1568 FILLER_103_1569
*1569 FILLER_103_1581
*1570 FILLER_103_1593
*1571 FILLER_103_1605
*1572 FILLER_103_161
*1573 FILLER_103_1617
*1574 FILLER_103_1623
*1575 FILLER_103_1625
*1576 FILLER_103_1637
*1577 FILLER_103_1649
*1578 FILLER_103_1661
*1579 FILLER_103_167
*1580 FILLER_103_1673
*1581 FILLER_103_1679
*1582 FILLER_103_1681
*1583 FILLER_103_169
*1584 FILLER_103_1693
*1585 FILLER_103_1705
*1586 FILLER_103_1717
*1587 FILLER_103_1729
*1588 FILLER_103_1735
*1589 FILLER_103_1737
*1590 FILLER_103_1749
*1591 FILLER_103_1761
*1592 FILLER_103_1773
*1593 FILLER_103_1785
*1594 FILLER_103_1791
*1595 FILLER_103_1793
*1596 FILLER_103_1805
*1597 FILLER_103_181
*1598 FILLER_103_1817
*1599 FILLER_103_1829
*1600 FILLER_103_1841